=
  PyMOL2.5          3D                             0

 20 21  0  0  0  0  0  0  0  0999 V2000
  115.7020  100.0510   22.7360 C   0  0  0  0  0  0  0  0  0  0  0  0
  116.4880  101.3780   22.7420 C   0  0  0  0  0  0  0  0  0  0  0  0
  115.5360  102.6000   22.9560 C   0  0  0  0  0  0  0  0  0  0  0  0
  116.1490  103.9390   23.5290 C   0  0  0  0  0  0  0  0  0  0  0  0
  117.3390  103.6680   24.3530 N   0  0  0  0  0  0  0  0  0  0  0  0
  117.3240  104.0650   25.2890 H   0  0  0  0  0  0  0  0  0  0  0  0
  118.5570  103.4280   23.8240 C   0  0  0  0  0  0  0  0  0  0  0  0
  119.5920  103.5430   24.6960 O   0  0  0  0  0  0  0  0  0  0  0  0
  120.7300  103.2310   24.0200 C   0  0  0  0  0  0  0  0  0  0  0  0
  120.4360  102.9510   22.7060 C   0  0  0  0  0  0  0  0  0  0  0  0
  121.9850  103.2290   24.7950 C   0  0  0  0  0  0  0  0  0  0  0  0
  119.0210  103.0320   22.5780 C   0  0  0  0  0  0  0  0  0  0  0  0
  118.2350  102.7060   21.3510 C   0  0  0  0  0  0  0  0  0  0  0  0
  117.3840  101.4460   21.4890 C   0  0  0  0  0  0  0  0  0  0  0  0
  114.6430  102.7640   21.7860 C   0  0  0  0  0  0  0  0  0  0  0  0
  113.8780  102.9450   20.8760 C   0  0  0  0  0  0  0  0  0  0  0  0
  116.4030  105.2360   22.6810 C   0  0  0  0  0  0  0  0  0  0  0  0
  115.7260  106.4830   23.0290 N   0  0  0  0  0  0  0  0  0  0  0  0
  114.7800  106.2690   23.3450 H   0  0  0  0  0  0  0  0  0  0  0  0
  115.5960  107.0310   22.1780 H   0  0  0  0  0  0  0  0  0  0  0  0
 15 16  3  0  0  0  0
 13 14  1  0  0  0  0
 12 13  1  0  0  0  0
  2 14  1  0  0  0  0
  3 15  1  0  0  0  0
 18 20  1  0  0  0  0
 10 12  1  0  0  0  0
  7 12  2  0  0  0  0
 17 18  1  0  0  0  0
  4 17  1  0  0  0  0
  9 10  2  0  0  0  0
  1  2  1  0  0  0  0
  2  3  1  0  0  0  0
  3  4  1  0  0  0  0
 18 19  1  0  0  0  0
  4  5  1  0  0  0  0
  5  7  1  0  0  0  0
  7  8  1  0  0  0  0
  8  9  1  0  0  0  0
  9 11  1  0  0  0  0
  5  6  1  0  0  0  0
M  END
$$$$
