20
=
C        115.70200      100.05100       22.73600
C        116.48800      101.37800       22.74200
C        115.53600      102.60000       22.95600
C        116.14900      103.93900       23.52900
N        117.33900      103.66800       24.35300
H        117.32400      104.06500       25.28900
C        118.55700      103.42800       23.82400
O        119.59200      103.54300       24.69600
C        120.73000      103.23100       24.02000
C        120.43600      102.95100       22.70600
C        121.98500      103.22900       24.79500
C        119.02100      103.03200       22.57800
C        118.23500      102.70600       21.35100
C        117.38400      101.44600       21.48900
C        114.64300      102.76400       21.78600
C        113.87800      102.94500       20.87600
C        116.40300      105.23600       22.68100
N        115.72600      106.48300       23.02900
H        114.78000      106.26900       23.34500
H        115.59600      107.03100       22.17800
