20
=
C        119.49900      101.06500       20.87500
C        119.43500      102.14200       21.97700
C        119.20200      101.50200       23.38400
C        119.63900      102.31800       24.66400
N        120.74300      103.24100       24.35300
H        121.56200      103.16300       24.95000
C        120.55300      104.43500       23.75200
O        121.59700      105.29800       23.85100
C        121.26200      106.42300       23.16400
C        119.99000      106.30100       22.65400
C        122.28300      107.48300       23.08400
C        119.53700      104.99500       22.99200
C        118.24700      104.38000       22.56000
C        118.42300      103.23200       21.56800
C        117.85200      100.89500       23.45300
C        116.73200      100.45700       23.46400
C        118.64400      103.03000       25.65000
N        118.91900      103.04400       27.08400
H        118.18500      102.52500       27.56700
H        118.82400      104.00100       27.42400
