47
*****
O          0.77840       -2.19870       -2.84820
P          0.86040       -1.63390       -1.40890
O          1.56150       -0.26740       -1.94340
O         -0.68250       -1.09880       -1.44210
O          0.95200       -1.00280        0.19930
P          2.60810       -0.92000        0.69280
O          2.61890        0.60650        0.52820
O          2.04290       -1.00820        2.23960
O          4.26410       -0.83710        1.18630
P          4.43770       -1.56300        2.74700
O          4.14700       -2.91650        2.07360
O          6.05530       -1.32960        2.65060
O          4.61140       -2.28900        4.30770
C          5.27930       -3.55950        4.34980
C          5.41790       -4.05990        5.78320
H          5.97020       -3.32300        6.37930
O          4.11820       -4.22180        6.38580
C          4.30330       -5.15830        7.45840
H          4.64190       -4.60750        8.34490
N          3.03010       -5.76330        7.79400
C          1.83110       -5.58930        7.16340
N          0.86340       -6.26390        7.75370
C          1.47330       -6.89810        8.81620
C          0.98060       -7.74060        9.82420
N          1.84100       -8.17590       10.77490
C          3.13780       -7.81440       10.68130
N          3.73340       -7.03620        9.74510
C          2.82320       -6.60070        8.85640
N         -0.35460       -8.11710        9.91610
C          5.34760       -6.16970        6.97530
H          4.87880       -7.07800        6.57700
O          6.26880       -6.57340        7.99330
C          6.07230       -5.44200        5.83910
H          5.91080       -5.99220        4.90400
O          7.47780       -5.34780        6.04610
H          1.21850       -0.05160       -2.82920
H         -1.06670       -1.34670       -2.30480
H          1.63000       -0.13530        2.41210
H          6.32200       -0.42580        2.88580
H          6.26690       -3.47220        3.88640
H          4.67950       -4.28930        3.79700
H          1.71210       -4.95930        6.28890
H          3.78690       -8.19610       11.46490
H         -0.98070       -7.49960        9.40380
H         -0.61720       -8.37880       10.85580
H          5.73430       -6.95070        8.72440
H          7.69220       -6.01710        6.72990
