21
2244
O          1.23330        0.55400        0.77920
O         -0.69520       -2.71480       -0.75020
O          0.79580       -2.18430        0.86850
O          1.78130        0.81050       -1.48210
C         -0.08570        0.60880        0.44030
C         -0.79270       -0.55150        0.12440
C         -0.72880        1.84640        0.41330
C         -2.14260       -0.47410       -0.21840
C         -2.07870        1.92380        0.07060
C         -2.78550        0.76360       -0.24530
C         -0.14090       -1.85360        0.14770
C          2.10940        0.67150       -0.31130
C          3.53050        0.59960        0.16350
H         -0.18510        2.75450        0.65930
H         -2.72470       -1.36050       -0.45640
H         -2.57970        2.88720        0.05060
H         -3.83740        0.82380       -0.50900
H          3.72900        1.41840        0.85930
H          4.20450        0.69690       -0.69240
H          3.71050       -0.36590        0.64260
H         -0.25550       -3.59160       -0.73370
