3 
 0 
 C 0.000000    0.000000    0.000000
 O 0.000000    0.000000    1.159076
 O 0.000000    0.000000   -1.159076
3 
 1 
 C 0.000000    0.000000    0.000000
 O 0.000000    0.000000    1.200000
 O 0.000000    0.000000   -1.159076
3 
 2 
 C 0.000000    0.000000    0.000000
 O 0.000000    0.000000    1.300000
 O 0.000000    0.000000   -1.159076
3 
 3 
 C 0.000000    0.000000    0.000000
 O 0.000000    0.000000    1.400000
 O 0.000000    0.000000   -1.159076
3 
 4 
 C 0.000000    0.000000    0.000000
 O 0.000000    0.000000    1.500000
 O 0.000000    0.000000   -1.159076
3 
 5 
 C 0.000000    0.000000    0.000000
 O 0.000000    0.000000    1.600000
 O 0.000000    0.000000   -1.159076
