
 OpenBabel09012218093D

  3  2  0  0  0  0  0  0  0  0999 V2000
    0.9791    0.0681    0.0317 F   0  0  0  0  0  0  0  0  0  0  0  0
    2.6767    0.0518    0.0504 Ar  0  0  0  0  0  0  0  0  0  0  0  0
    4.0333    0.0387    0.0654 H   0  0  0  0  0  0  0  0  0  0  0  0
  1  2  1  0  0  0  0
  2  3  1  0  0  0  0
M  END
