32
HWB - Ideal conformer
O         -4.65200       -2.73200        0.06900
C         -3.89200       -1.60700        0.03000
C         -4.51200       -0.36300       -0.09400
C         -3.76800        0.78400       -0.13500
O         -4.37900        1.99000       -0.25400
C         -2.36600        0.70600       -0.05200
C         -1.55900        1.86200       -0.08900
C         -0.20200        1.64300        0.00300
O          0.67900        2.67800       -0.02100
C          0.24200        0.31300        0.12200
O         -0.51500       -0.63000        0.14700
C         -1.72800       -0.55400        0.07400
C         -2.52000       -1.71100        0.11800
C          1.69600        0.05800        0.22100
C          2.31400        0.01300        1.47100
C          3.67000       -0.22600        1.56200
C          4.42200       -0.42000        0.41200
O          5.75700       -0.65400        0.50700
C          3.81000       -0.37500       -0.83900
O          4.54900       -0.56600       -1.96500
C          2.45100       -0.14300       -0.93600
H         -4.82300       -3.12100       -0.80000
H         -5.58900       -0.30500       -0.15700
H         -4.60400        2.40200        0.59100
H         -1.97700        2.85400       -0.18300
H          0.88500        3.03900        0.85200
H         -2.05600       -2.68100        0.21300
H          1.73200        0.16400        2.36800
H          4.14700       -0.26000        2.53000
H          5.98700       -1.59100        0.57900
H          4.60800       -1.49000       -2.24500
H          1.97600       -0.10900       -1.90500
