36
=
O          0.86700        0.13400        0.21100
C          2.09000        0.09600        0.14700
C          2.83500       -1.16400        0.07100
C          2.15600       -2.38200        0.09600
C          2.87900       -3.57200        0.06300
C          4.28200       -3.55800        0.02100
C          4.97400       -2.32100       -0.01300
C          6.38500       -2.34700       -0.04000
C          7.08900       -3.55300       -0.03000
C          6.39900       -4.75900       -0.00200
C          5.00400       -4.76200        0.02000
C          4.22500       -1.12100       -0.00600
O          4.90900        0.07300       -0.08700
C          4.21800        1.27700        0.01800
C          2.88400        1.32800        0.14700
N          5.00100        2.42300       -0.06900
C          4.52060        3.70690       -0.61490
C          5.61180        4.34080       -1.48900
O          6.84180        4.50330       -0.76190
C          7.30700        3.23100       -0.27710
C          6.27680        2.57100        0.65580
H          1.12510       -2.40140        0.13870
H          2.37770       -4.47400        0.06950
H          6.90680       -1.45700       -0.06770
H          8.12090       -3.54870       -0.04340
H          6.91780       -5.65110        0.00250
H          4.49650       -5.66050        0.03570
H          2.41340        2.24100        0.24690
H          4.28210        4.36880        0.19140
H          3.64780        3.53380       -1.20920
H          5.27600        5.30040       -1.82280
H          5.79600        3.69150       -2.31920
H          7.48440        2.58500       -1.11140
H          8.20720        3.39260        0.27830
H          6.12980        3.18470        1.51990
H          6.63150        1.61000        0.96500
36
=
O          0.86700        0.13400        0.21100
C          2.09000        0.09600        0.14700
C          2.83500       -1.16400        0.07100
C          2.15600       -2.38200        0.09600
C          2.87900       -3.57200        0.06300
C          4.28200       -3.55800        0.02100
C          4.97400       -2.32100       -0.01300
C          6.38500       -2.34700       -0.04000
C          7.08900       -3.55300       -0.03000
C          6.39900       -4.75900       -0.00200
C          5.00400       -4.76200        0.02000
C          4.22500       -1.12100       -0.00600
O          4.90900        0.07300       -0.08700
C          4.21800        1.27700        0.01800
C          2.88400        1.32800        0.14700
N          5.00100        2.42300       -0.06900
C          4.68000        3.69130        0.61340
C          4.96280        4.87260       -0.32540
O          6.32060        4.85650       -0.79870
C          6.59240        3.62690       -1.49450
C          6.38280        2.40440       -0.58400
H          1.12510       -2.40140        0.13870
H          2.37770       -4.47400        0.06950
H          6.90680       -1.45700       -0.06770
H          8.12090       -3.54870       -0.04340
H          6.91780       -5.65110        0.00250
H          4.49650       -5.66050        0.03570
H          2.41340        2.24100        0.24690
H          5.28250        3.78400        1.49270
H          3.64470        3.69490        0.88390
H          4.79000        5.78630        0.20390
H          4.31180        4.79280       -1.17070
H          5.93490        3.55070       -2.33530
H          7.61480        3.63880       -1.80970
H          7.07150        2.44370        0.23400
H          6.55020        1.50560       -1.13990
36
=
O          0.86700        0.13400        0.21100
C          2.09000        0.09600        0.14700
C          2.83500       -1.16400        0.07100
C          2.15600       -2.38200        0.09600
C          2.87900       -3.57200        0.06300
C          4.28200       -3.55800        0.02100
C          4.97400       -2.32100       -0.01300
C          6.38500       -2.34700       -0.04000
C          7.08900       -3.55300       -0.03000
C          6.39900       -4.75900       -0.00200
C          5.00400       -4.76200        0.02000
C          4.22500       -1.12100       -0.00600
O          4.90900        0.07300       -0.08700
C          4.21800        1.27700        0.01800
C          2.88400        1.32800        0.14700
N          5.00100        2.42300       -0.06900
C          4.46510        3.79400        0.03320
C          5.14490        4.69650       -1.00610
O          6.57600        4.67700       -0.86590
C          7.07360        3.33480       -1.01070
C          6.47100        2.39190        0.04530
H          1.12510       -2.40140        0.13870
H          2.37770       -4.47400        0.06950
H          6.90680       -1.45700       -0.06770
H          8.12090       -3.54870       -0.04340
H          6.91780       -5.65110        0.00250
H          4.49650       -5.66050        0.03570
H          2.41340        2.24100        0.24690
H          4.65410        4.17710        1.01430
H          3.41110        3.77600       -0.14980
H          4.79660        5.69980       -0.87620
H          4.89820        4.33060       -1.98080
H          6.81930        2.97310       -1.98500
H          8.13490        3.35440       -0.87610
H          6.76210        2.71500        1.02300
H          6.82590        1.39520       -0.11420
36
=
O          0.86700        0.13400        0.21100
C          2.09000        0.09600        0.14700
C          2.83500       -1.16400        0.07100
C          2.15600       -2.38200        0.09600
C          2.87900       -3.57200        0.06300
C          4.28200       -3.55800        0.02100
C          4.97400       -2.32100       -0.01300
C          6.38500       -2.34700       -0.04000
C          7.08900       -3.55300       -0.03000
C          6.39900       -4.75900       -0.00200
C          5.00400       -4.76200        0.02000
C          4.22500       -1.12100       -0.00600
O          4.90900        0.07300       -0.08700
C          4.21800        1.27700        0.01800
C          2.88400        1.32800        0.14700
N          5.00100        2.42300       -0.06900
C          6.41120        2.48920        0.36020
C          6.67000        3.81370        1.09190
O          6.31200        4.94420        0.27850
C          4.92310        4.87400       -0.09050
C          4.61290        3.59120       -0.88130
H          1.12510       -2.40140        0.13870
H          2.37770       -4.47400        0.06950
H          6.90680       -1.45700       -0.06770
H          8.12090       -3.54870       -0.04340
H          6.91780       -5.65110        0.00250
H          4.49650       -5.66050        0.03570
H          2.41340        2.24100        0.24690
H          7.04710        2.42730       -0.49810
H          6.61800        1.67380        1.02150
H          7.70950        3.87770        1.33780
H          6.06750        3.83210        1.97590
H          4.32650        4.88750        0.79760
H          4.69880        5.71440       -0.71350
H          5.16610        3.59140       -1.79720
H          3.56720        3.54650       -1.10370
36
=
O          0.86700        0.13400        0.21100
C          2.09000        0.09600        0.14700
C          2.83500       -1.16400        0.07100
C          2.15600       -2.38200        0.09600
C          2.87900       -3.57200        0.06300
C          4.28200       -3.55800        0.02100
C          4.97400       -2.32100       -0.01300
C          6.38500       -2.34700       -0.04000
C          7.08900       -3.55300       -0.03000
C          6.39900       -4.75900       -0.00200
C          5.00400       -4.76200        0.02000
C          4.22500       -1.12100       -0.00600
O          4.90900        0.07300       -0.08700
C          4.21800        1.27700        0.01800
C          2.88400        1.32800        0.14700
N          5.00100        2.42300       -0.06900
C          6.46420        2.40600       -0.25910
C          7.11620        3.47390        0.63040
O          6.56600        4.77830        0.37790
C          5.14610        4.77480        0.61050
C          4.42730        3.76220       -0.29790
H          1.12510       -2.40140        0.13870
H          2.37770       -4.47400        0.06950
H          6.90680       -1.45700       -0.06770
H          8.12090       -3.54870       -0.04340
H          6.91780       -5.65110        0.00250
H          4.49650       -5.66050        0.03570
H          2.41340        2.24100        0.24690
H          6.69160        2.61050       -1.28440
H          6.84420        1.44240        0.00920
H          8.16760        3.49590        0.43310
H          6.92550        3.22130        1.65260
H          4.96200        4.51670        1.63250
H          4.76780        5.75100        0.38960
H          4.56190        4.04020       -1.32240
H          3.38140        3.75180       -0.07240
36
=
O          0.86700        0.13400        0.21100
C          2.09000        0.09600        0.14700
C          2.83500       -1.16400        0.07100
C          2.15600       -2.38200        0.09600
C          2.87900       -3.57200        0.06300
C          4.28200       -3.55800        0.02100
C          4.97400       -2.32100       -0.01300
C          6.38500       -2.34700       -0.04000
C          7.08900       -3.55300       -0.03000
C          6.39900       -4.75900       -0.00200
C          5.00400       -4.76200        0.02000
C          4.22500       -1.12100       -0.00600
O          4.90900        0.07300       -0.08700
C          4.21800        1.27700        0.01800
C          2.88400        1.32800        0.14700
N          5.00100        2.42300       -0.06900
C          6.25520        2.50450       -0.84210
C          7.30530        3.29320       -0.04720
O          6.82210        4.59840        0.31460
C          5.62260        4.48650        1.10120
C          4.50920        3.75420        0.33240
H          1.12510       -2.40140        0.13870
H          2.37770       -4.47400        0.06950
H          6.90680       -1.45700       -0.06770
H          8.12090       -3.54870       -0.04340
H          6.91780       -5.65110        0.00250
H          4.49650       -5.66050        0.03570
H          2.41340        2.24100        0.24690
H          6.06780        2.99970       -1.77190
H          6.62100        1.51620       -1.02740
H          8.18520        3.40200       -0.64620
H          7.52040        2.75400        0.85170
H          5.84320        3.94220        1.99560
H          5.27860        5.47340        1.33030
H          4.24430        4.31670       -0.53850
H          3.64670        3.64860        0.95680
