24
TYR - Ideal conformer
N          1.32000        0.95200        1.42800
C         -0.01800        0.42900        1.73400
C         -0.10300        0.09400        3.20100
O          0.88600       -0.25400        3.79900
C         -0.27400       -0.83100        0.90700
C         -0.18900       -0.49600       -0.55900
C          1.02200       -0.58900       -1.21900
C         -1.32400       -0.10200       -1.24400
C          1.10300       -0.28200       -2.56300
C         -1.24700        0.21000       -2.58700
C         -0.03200        0.11800       -3.25200
O          0.04400        0.42000       -4.57400
O         -1.27900        0.18400        3.84200
H          1.97700        0.22500        1.66900
H          1.36500        1.06300        0.42600
H         -0.76700        1.18300        1.48900
H          0.47300       -1.58500        1.15200
H         -1.26800       -1.21900        1.13400
H          1.90500       -0.90200       -0.68300
H         -2.26900       -0.03100       -0.72700
H          2.04900       -0.35400       -3.07800
H         -2.13200        0.52300       -3.12100
H         -0.12300       -0.39900       -5.05900
H         -1.33300       -0.03000        4.78400
